Info: SIMULATION PARAMETERS:
Info: TIMESTEP               2
Info: NUMBER OF STEPS        0
Info: STEPS PER CYCLE        10
Info: PERIODIC CELL BASIS 1  40.4 0 0
Info: PERIODIC CELL BASIS 2  0 40.4 0
Info: PERIODIC CELL BASIS 3  0 0 40.4
Info: PERIODIC CELL CENTER   20.2 20.2 20.2
Info: WRAPPING ALL CLUSTERS AROUND PERIODIC BOUNDARIES ON OUTPUT.
Info: FIRST LDB TIMESTEP     50
Info: LAST LDB TIMESTEP     -1
Info: HOM BACKGROUND SCALING 1
Info: PME BACKGROUND SCALING 1
Info: MIN ATOMS PER PATCH    40
Info: INITIAL TEMPERATURE    298
Info: CENTER OF MASS MOVING INITIALLY? NO
Info: DIELECTRIC             1
Info: EXCLUDE                SCALED ONE-FOUR
Info: 1-4 ELECTROSTATICS SCALED BY 1
Info: MODIFIED 1-4 VDW PARAMETERS WILL BE USED
Info: DCD FILENAME           namdOut.dcd
Info: DCD FREQUENCY          500
Info: DCD FIRST STEP         500
Info: DCD FILE WILL CONTAIN UNIT CELL DATA
Info: XST FILENAME           namdOut.xst
Info: XST FREQUENCY          500
Info: NO VELOCITY DCD OUTPUT
Info: NO FORCE DCD OUTPUT
Info: OUTPUT FILENAME        namdOut
Info: BINARY OUTPUT FILES WILL BE USED
Info: RESTART FILENAME       namdOut.restart
Info: RESTART FREQUENCY      500
Info: BINARY RESTART FILES WILL BE USED
Info: SWITCHING ACTIVE
Info: SWITCHING ON           10
Info: SWITCHING OFF          12
Info: PAIRLIST DISTANCE      16
Info: PAIRLIST SHRINK RATE   0.01
Info: PAIRLIST GROW RATE     0.01
Info: PAIRLIST TRIGGER       0.3
Info: PAIRLISTS PER CYCLE    2
Info: PAIRLISTS ENABLED
Info: MARGIN                 3
Info: HYDROGEN GROUP CUTOFF  2.5
Info: PATCH DIMENSION        21.5
Info: ENERGY OUTPUT STEPS    500
Info: CROSSTERM ENERGY INCLUDED IN DIHEDRAL
Info: TIMING OUTPUT STEPS    5000
Info: PRESSURE OUTPUT STEPS  500
Info: LANGEVIN DYNAMICS ACTIVE
Info: LANGEVIN TEMPERATURE   298
Info: LANGEVIN USING BBK INTEGRATOR
Info: LANGEVIN DAMPING COEFFICIENT IS 1 INVERSE PS
Info: LANGEVIN DYNAMICS NOT APPLIED TO HYDROGENS
Info: PARTICLE MESH EWALD (PME) ACTIVE
Info: PME TOLERANCE               1e-05
Info: PME EWALD COEFFICIENT       0.226635
Info: PME INTERPOLATION ORDER     4
Info: PME GRID DIMENSIONS         41 41 41
Info: PME MAXIMUM GRID SPACING    1.5
Info: FULL ELECTROSTATIC EVALUATION FREQUENCY      2
Info: USING VERLET I (r-RESPA) MTS SCHEME.
Info: C1 SPLITTING OF LONG RANGE ELECTROSTATICS
Info: PLACING ATOMS IN PATCHES BY HYDROGEN GROUPS
Info: RIGID BONDS TO HYDROGEN : ALL
Info:         ERROR TOLERANCE : 1e-08
Info:          MAX ITERATIONS : 100
Info: RIGID WATER USING SETTLE ALGORITHM
Info: RANDOM NUMBER SEED     1618254764
Info: USE HYDROGEN BONDS?    NO
Info: COORDINATE PDB         ../../required_data/equilb_box_298K/TIPS3P_box_0.pdb
Info: STRUCTURE FILE         ../../required_data/equilb_box_298K/TIPS3P_box_0.psf
Info: PARAMETER file: CHARMM format!
Info: PARAMETERS             ../../required_data/equilb_box_298K/NAMD_TIPS3P_FF.inp
Info: PARAMETERS             ../../required_data/equilb_box_298K/NAMD_TIPS3P_FF.inp
Info: USING ARITHMETIC MEAN TO COMBINE L-J SIGMA PARAMETERS
Info: SUMMARY OF PARAMETERS:
Info: 4 BONDS
Info: 4 ANGLES
Info: 0 DIHEDRAL
Info: 0 IMPROPER
Info: 0 CROSSTERM
Info: 8 VDW
Info: 0 VDW_PAIRS
Info: 0 NBTHOLE_PAIRS
Info: STRUCTURE SUMMARY:
Info: 6282 ATOMS
Info: 4188 BONDS
Info: 2094 ANGLES
Info: 0 DIHEDRALS
Info: 0 IMPROPERS
Info: 0 CROSSTERMS
Info: 0 EXCLUSIONS
Info: 6282 RIGID BONDS
Info: 12564 DEGREES OF FREEDOM
Info: 2094 HYDROGEN GROUPS
Info: 3 ATOMS IN LARGEST HYDROGEN GROUP
Info: 2094 MIGRATION GROUPS
Info: 3 ATOMS IN LARGEST MIGRATION GROUP
Info: TOTAL MASS = 37723.8 amu
Info: TOTAL CHARGE = 0 e
Info: MASS DENSITY = 0.950016 g/cm^3
Info: ATOM DENSITY = 0.0952695 atoms/A^3
Info: ADDED 6282 IMPLICIT EXCLUSIONS
Info: NONBONDED TABLE R-SQUARED SPACING: 0.0625
Info: NONBONDED TABLE SIZE: 769 POINTS
Info: REMOVING COM VELOCITY -0.00611868 -0.0476108 0.0435834
Info: Updated CUDA force table with 4096 elements.
Info: Updated CUDA LJ table with 4 x 4 elements.
Info: Found 3 unique exclusion lists needing 4 bytes
TCL: Minimizing for 500 steps
ETITLE: TS BOND ANGLE DIHED IMPRP ELECT VDW BOUNDARY MISC KINETIC TOTAL TEMP POTENTIAL TOTAL3 TEMPAVG PRESSURE GPRESSURE VOLUME PRESSAVG GPRESSAVG
ENERGY: 0 0.0000 0.0000 0.0000 0.0000 87.4130 21870.6137 0.0000 0.0000 0.0000 21958.0267 0.0000 21958.0267 21958.0267 0.0000 -527.3650 4762.8224 65939.2640 -527.3650 4762.8224
ENERGY: 100 0.0000 0.0000 0.0000 0.0000 -23149.0694 1803.9948 0.0000 0.0000 0.0000 -21345.0746 0.0000 -21345.0746 -21345.0746 0.0000 -24.6302 -20808.9135 65939.2640 -24.6302 -20808.9135
ENERGY: 200 0.0000 0.0000 0.0000 0.0000 -25268.1215 2412.4904 0.0000 0.0000 0.0000 -22855.6311 0.0000 -22855.6311 -22855.6311 0.0000 -23.5080 -23008.0163 65939.2640 -23.5080 -23008.0163
ENERGY: 300 0.0000 0.0000 0.0000 0.0000 -26709.0671 3030.9994 0.0000 0.0000 0.0000 -23678.0677 0.0000 -23678.0677 -23678.0677 0.0000 -20.9836 -24386.8533 65939.2640 -20.9836 -24386.8533
ENERGY: 400 0.0000 0.0000 0.0000 0.0000 -27240.4834 3129.8248 0.0000 0.0000 0.0000 -24110.6586 0.0000 -24110.6586 -24110.6586 0.0000 -19.5667 -24928.8144 65939.2640 -19.5667 -24928.8144
ENERGY: 500 0.0000 0.0000 0.0000 0.0000 -27641.3725 3252.8401 0.0000 0.0000 0.0000 -24388.5324 0.0000 -24388.5324 -24388.5324 0.0000 -19.3342 -25329.3113 65939.2640 -19.3342 -25329.3113
TCL: Running for 500 steps
ETITLE: TS BOND ANGLE DIHED IMPRP ELECT VDW BOUNDARY MISC KINETIC TOTAL TEMP POTENTIAL TOTAL3 TEMPAVG PRESSURE GPRESSURE VOLUME PRESSAVG GPRESSAVG
ENERGY: 500 0.0000 0.0000 0.0000 0.0000 -27641.3725 3252.8401 0.0000 0.0000 3743.8557 -20644.6767 299.9035 -24388.5324 -20647.0162 299.9035 -969.9261 -937.2558 65939.2640 -969.9261 -937.2558
ENERGY: 1000 0.0000 0.0000 0.0000 0.0000 -24826.6228 2677.6056 0.0000 0.0000 2654.5824 -19494.4348 212.6467 -22149.0172 -19490.8146 186.4869 -1091.3370 -1056.2480 65939.2640 -715.0006 -714.8585
